Molecule Name
  CHEMDOOD07040913283D 0   0.00000     0.00000     0
[Insert Comment Here]
 12 12  0  0  0  0  0  0  0  0  1 V2000
    0.0000    1.0000    0.0000   C 0  0  0  2  0  0  0  0  0  0  0  0
   -0.8660    0.5000    0.0000   C 0  0  0  2  0  0  0  0  0  0  0  0
   -0.8660   -0.5000    0.0000   C 0  0  0  2  0  0  0  0  0  0  0  0
    0.0000   -1.0000    0.0000   C 0  0  0  2  0  0  0  0  0  0  0  0
    0.8660   -0.5000    0.0000   C 0  0  0  2  0  0  0  0  0  0  0  0
    0.8660    0.5000    0.0000   C 0  0  0  2  0  0  0  0  0  0  0  0
    0.0000    2.0000    0.0000   H-2  0  0  1  0  0  0  0  0  0  0  0
   -1.7321    1.0000    0.0000   H-2  0  0  1  0  0  0  0  0  0  0  0
   -1.7321   -1.0000    0.0000   H-2  0  0  1  0  0  0  0  0  0  0  0
    0.0000   -2.0000    0.0000   H-2  0  0  1  0  0  0  0  0  0  0  0
    1.7320   -1.0000    0.0000   H-2  0  0  1  0  0  0  0  0  0  0  0
    1.7320    1.0000    0.0000   H-2  0  0  1  0  0  0  0  0  0  0  0
  1  2  2  0  0  0  0
  2  3  1  0  0  0  0
  3  4  2  0  0  0  0
  4  5  1  0  0  0  0
  5  6  2  0  0  0  0
  1  6  1  0  0  0  0
  1  7  1  0  0  0  0
  2  8  1  0  0  0  0
  3  9  1  0  0  0  0
  4 10  1  0  0  0  0
  5 11  1  0  0  0  0
  6 12  1  0  0  0  0
M  END