Molecule Name
  CHEMDOOD08260922123D 0   0.00000     0.00000     0
[Insert Comment Here]
 10 11  0  0  0  0  0  0  0  0  1 V2000
   -0.8660    1.0000    0.0000 C   0  0  0  2  0  0  0  0  0  0  0  0
   -1.7321    0.5000    0.0000 C   0  0  0  2  0  0  0  0  0  0  0  0
   -1.7321   -0.5000    0.0000 C   0  0  0  2  0  0  0  0  0  0  0  0
   -0.8660   -1.0000    0.0000 C   0  0  0  2  0  0  0  0  0  0  0  0
    0.0000   -0.5000    0.0000 C   0  0  0  1  0  0  0  0  0  0  0  0
    0.0000    0.5000    0.0000 C   0  0  0  1  0  0  0  0  0  0  0  0
    0.8660   -1.0000    0.0000 C   0  0  0  2  0  0  0  0  0  0  0  0
    1.7321   -0.5000    0.0000 C   0  0  0  2  0  0  0  0  0  0  0  0
    1.7321    0.5000    0.0000 C   0  0  0  2  0  0  0  0  0  0  0  0
    0.8660    1.0000    0.0000 C   0  0  0  2  0  0  0  0  0  0  0  0
  1  2  2  0  0  0  0
  2  3  1  0  0  0  0
  3  4  2  0  0  0  0
  4  5  1  0  0  0  0
  5  6  2  0  0  0  0
  6  1  1  0  0  0  0
  5  7  1  0  0  0  0
  7  8  2  0  0  0  0
  8  9  1  0  0  0  0
  9 10  2  0  0  0  0
 10  6  1  0  0  0  0
M  END