Molecule Name
  CHEMDOOD08260921073D 0   0.00000     0.00000     0
[Insert Comment Here]
  6  6  0  0  0  0  0  0  0  0  1 V2000
    0.0000    0.2694    0.0000 N   0  0  0  2  0  0  0  0  0  0  0  0
   -0.8090   -0.3184    0.0000 C   0  0  0  2  0  0  0  0  0  0  0  0
   -0.5000   -1.2694    0.0000 C   0  0  0  2  0  0  0  0  0  0  0  0
    0.5000   -1.2694    0.0000 C   0  0  0  2  0  0  0  0  0  0  0  0
    0.8090   -0.3184    0.0000 C   0  0  0  2  0  0  0  0  0  0  0  0
    0.0000    1.2694    0.0000 H  -2  0  0  1  0  0  0  0  0  0  0  0
  1  2  1  0  0  0  0
  2  3  2  0  0  0  0
  3  4  1  0  0  0  0
  4  5  2  0  0  0  0
  5  1  1  0  0  0  0
  1  6  1  0  0  0  0
M  END