Molecule Name
  CHEMDOOD08071008403D 0   0.00000     0.00000     0
[Insert Comment Here]
 30 31  0  0  0  0  0  0  0  0  1 V2000
   -2.1651    1.2500    0.0000   C 0  0  0  0  0  0  0  0  0  0  0  0
   -2.1651    2.2500    0.0000   C 0  0  0  0  0  0  0  0  0  0  0  0
   -1.2990    0.7500    0.0000   C 0  0  0  0  0  0  0  0  0  0  0  0
   -3.0311    0.7500    0.0000   C 0  0  0  0  0  0  0  0  0  0  0  0
   -1.2990   -0.2500    0.0000   C 0  0  0  0  0  0  0  0  0  0  0  0
   -0.4330    1.2500    0.0000   O 0  0  0  0  0  0  0  0  0  0  0  0
   -3.0311   -0.2500    0.0000   C 0  0  0  0  0  0  0  0  0  0  0  0
   -2.1651   -0.7500    0.0000   C 0  0  0  0  0  0  0  0  0  0  0  0
   -3.8971   -0.7500    0.0000   O 0  0  0  0  0  0  0  0  0  0  0  0
   -3.8971   -1.7500    0.0000   C 0  0  0  0  0  0  0  0  0  0  0  0
   -2.1651   -1.7500    0.0000   O 0  0  0  0  0  0  0  0  0  0  0  0
   -0.4330   -0.7500    0.0000   C 0  0  0  0  0  0  0  0  0  0  0  0
    0.4330   -0.2500    0.0000   C 0  0  0  0  0  0  0  0  0  0  0  0
    1.2990   -0.7500    0.0000   O 0  0  0  0  0  0  0  0  0  0  0  0
    1.2990   -1.7500    0.0000   C 0  0  0  0  0  0  0  0  0  0  0  0
    2.1651   -2.2500    0.0000   C 0  0  0  0  0  0  0  0  0  0  0  0
    2.1651   -3.2500    0.0000   C 0  0  0  0  0  0  0  0  0  0  0  0
    3.0311   -3.7500    0.0000   C 0  0  0  0  0  0  0  0  0  0  0  0
    3.8971   -3.2500    0.0000   C 0  0  0  0  0  0  0  0  0  0  0  0
    3.8971   -2.2500    0.0000   C 0  0  0  0  0  0  0  0  0  0  0  0
    3.0311   -1.7500    0.0000   C 0  0  0  0  0  0  0  0  0  0  0  0
   -3.0311    2.7500    0.0000   C 0  0  0  0  0  0  0  0  0  0  0  0
   -3.8971    2.2500    0.0000   O 0  0  0  0  0  0  0  0  0  0  0  0
   -3.0311    3.7500    0.0000   C 0  0  0  0  0  0  0  0  0  0  0  0
   -0.4330    2.2500    0.0000   C 0  0  0  0  0  0  0  0  0  0  0  0
   -1.2990    2.7500    0.0000   O 0  0  0  0  0  0  0  0  0  0  0  0
    0.4330    2.7500    0.0000   C 0  0  0  0  0  0  0  0  0  0  0  0
   -1.2990   -2.2500    0.0000   C 0  0  0  0  0  0  0  0  0  0  0  0
   -0.4330   -1.7500    0.0000   O 0  0  0  0  0  0  0  0  0  0  0  0
   -1.2990   -3.2500    0.0000   C 0  0  0  0  0  0  0  0  0  0  0  0
  1  2  1  0  0  0  0
  3  1  1  0  0  0  0
  1  4  2  0  0  0  0
  5  3  2  0  0  0  0
  3  6  1  0  0  0  0
  4  7  1  0  0  0  0
  8  5  1  0  0  0  0
  7  8  2  0  0  0  0
  7  9  1  0  0  0  0
  9 10  1  0  0  0  0
  8 11  1  0  0  0  0
  5 12  1  0  0  0  0
 12 13  1  0  0  0  0
 13 14  1  0  0  0  0
 14 15  1  0  0  0  0
 15 16  1  0  0  0  0
 16 17  2  0  0  0  0
 17 18  1  0  0  0  0
 18 19  2  0  0  0  0
 19 20  1  0  0  0  0
 20 21  2  0  0  0  0
 21 16  1  0  0  0  0
 22 23  2  0  0  0  0
 22 24  1  0  0  0  0
  2 22  1  0  0  0  0
 25 26  2  0  0  0  0
 25 27  1  0  0  0  0
  6 25  1  0  0  0  0
 28 29  2  0  0  0  0
 28 30  1  0  0  0  0
 11 28  1  0  0  0  0
M  END