Molecule Name
  CHEMDOOD08071008023D 0   0.00000     0.00000     0
[Insert Comment Here]
 11 11  0  0  0  0  0  0  0  0  1 V2000
   -0.4330    0.2500    0.0000   C 0  0  0  0  0  0  0  0  0  0  0  0
   -1.2990   -0.2500    0.0000   C 0  0  0  0  0  0  0  0  0  0  0  0
   -1.2990   -1.2500    0.0000   C 0  0  0  0  0  0  0  0  0  0  0  0
   -0.4330   -1.7500    0.0000   C 0  0  0  0  0  0  0  0  0  0  0  0
    0.4330   -1.2500    0.0000   C 0  0  0  0  0  0  0  0  0  0  0  0
    0.4330   -0.2500    0.0000   C 0  0  0  0  0  0  0  0  0  0  0  0
   -0.4330    1.2500    0.0000   N 0  0  0  0  0  0  0  0  0  0  0  0
    0.4330    1.7500    0.0000   C 0  0  0  0  0  0  0  0  0  0  0  0
    1.2990    1.2500    0.0000   C 0  0  0  0  0  0  0  0  0  0  0  0
    0.4330    2.7500    0.0000   O 0  0  0  0  0  0  0  0  0  0  0  0
   -0.4330   -2.7500    0.0000   O 0  0  0  0  0  0  0  0  0  0  0  0
  1  2  2  0  0  0  0
  2  3  1  0  0  0  0
  3  4  2  0  0  0  0
  4  5  1  0  0  0  0
  5  6  2  0  0  0  0
  6  1  1  0  0  0  0
  1  7  1  0  0  0  0
  7  8  1  0  0  0  0
  8  9  1  0  0  0  0
  8 10  2  0  0  0  0
  4 11  1  0  0  0  0
M  END